

**************************************************************************************************
OpenFAST

Copyright (C) 2023 National Renewable Energy Laboratory
Copyright (C) 2023 Envision Energy USA LTD

This program is licensed under Apache License Version 2.0 and comes with ABSOLUTELY NO WARRANTY.
See the "LICENSE" file distributed with this software for details.
**************************************************************************************************

OpenFAST-v3.5.1
Compile Info:
- Compiler: Intel(R) Fortran Compiler 2021
- Architecture: 64 bit
- Precision: single
- OpenMP: No
- Date: Oct 20 2023
- Time: 13:40:29
Execution Info:
- Date: 01/17/2026
- Time: 06:32:31-0500


OpenFAST input file heading:

FAST Certification Test #18: NREL 5.0 MW Baseline Wind Turbine (Onshore)


Running ElastoDyn.

Nodal outputs section of ElastoDyn input file not found or improperly formatted.

Time: 0 of 300 seconds.

Time: 3 of 300 seconds.  Estimated final completion at 06:32:53.

Time: 6 of 300 seconds.  Estimated final completion at 06:32:54.

Time: 9 of 300 seconds.  Estimated final completion at 06:32:57.

Time: 12 of 300 seconds.  Estimated final completion at 06:32:55.

Time: 15 of 300 seconds.  Estimated final completion at 06:32:56.

Time: 18 of 300 seconds.  Estimated final completion at 06:32:55.

Time: 21 of 300 seconds.  Estimated final completion at 06:32:57.

Time: 24 of 300 seconds.  Estimated final completion at 06:32:56.

Time: 27 of 300 seconds.  Estimated final completion at 06:32:55.

Time: 30 of 300 seconds.  Estimated final completion at 06:32:54.

Time: 33 of 300 seconds.  Estimated final completion at 06:32:55.

Time: 36 of 300 seconds.  Estimated final completion at 06:32:55.

Time: 39 of 300 seconds.  Estimated final completion at 06:32:58.

Time: 42 of 300 seconds.  Estimated final completion at 06:32:55.

Time: 45 of 300 seconds.  Estimated final completion at 06:32:55.

Time: 48 of 300 seconds.  Estimated final completion at 06:32:55.

Time: 51 of 300 seconds.  Estimated final completion at 06:32:55.

Time: 54 of 300 seconds.  Estimated final completion at 06:32:55.

Time: 57 of 300 seconds.  Estimated final completion at 06:32:55.

Time: 60 of 300 seconds.  Estimated final completion at 06:32:54.

Time: 63 of 300 seconds.  Estimated final completion at 06:32:55.

Time: 66 of 300 seconds.  Estimated final completion at 06:32:54.

Time: 69 of 300 seconds.  Estimated final completion at 06:32:54.

Time: 72 of 300 seconds.  Estimated final completion at 06:32:54.

Time: 75 of 300 seconds.  Estimated final completion at 06:32:55.

Time: 78 of 300 seconds.  Estimated final completion at 06:32:54.

Time: 81 of 300 seconds.  Estimated final completion at 06:32:55.

Time: 84 of 300 seconds.  Estimated final completion at 06:32:56.

Time: 87 of 300 seconds.  Estimated final completion at 06:32:55.

Time: 90 of 300 seconds.  Estimated final completion at 06:32:56.

Time: 93 of 300 seconds.  Estimated final completion at 06:32:55.

Time: 96 of 300 seconds.  Estimated final completion at 06:32:55.

Time: 99 of 300 seconds.  Estimated final completion at 06:32:54.

Time: 102 of 300 seconds.  Estimated final completion at 06:32:55.

Time: 105 of 300 seconds.  Estimated final completion at 06:32:54.

Time: 108 of 300 seconds.  Estimated final completion at 06:32:54.

Time: 111 of 300 seconds.  Estimated final completion at 06:32:54.

Time: 114 of 300 seconds.  Estimated final completion at 06:32:54.

Time: 117 of 300 seconds.  Estimated final completion at 06:32:56.

Time: 120 of 300 seconds.  Estimated final completion at 06:32:55.

Time: 123 of 300 seconds.  Estimated final completion at 06:32:55.

Time: 126 of 300 seconds.  Estimated final completion at 06:32:55.

Time: 129 of 300 seconds.  Estimated final completion at 06:32:56.

Time: 132 of 300 seconds.  Estimated final completion at 06:32:55.

Time: 135 of 300 seconds.  Estimated final completion at 06:32:55.

Time: 138 of 300 seconds.  Estimated final completion at 06:32:54.

Time: 141 of 300 seconds.  Estimated final completion at 06:32:55.

Time: 144 of 300 seconds.  Estimated final completion at 06:32:55.

Time: 147 of 300 seconds.  Estimated final completion at 06:32:55.

Time: 150 of 300 seconds.  Estimated final completion at 06:32:55.

Time: 153 of 300 seconds.  Estimated final completion at 06:32:55.

Time: 156 of 300 seconds.  Estimated final completion at 06:32:55.

Time: 159 of 300 seconds.  Estimated final completion at 06:32:55.

Time: 162 of 300 seconds.  Estimated final completion at 06:32:55.

Time: 165 of 300 seconds.  Estimated final completion at 06:32:55.

Time: 168 of 300 seconds.  Estimated final completion at 06:32:55.

Time: 171 of 300 seconds.  Estimated final completion at 06:32:55.

Time: 174 of 300 seconds.  Estimated final completion at 06:32:55.

Time: 177 of 300 seconds.  Estimated final completion at 06:32:55.

Performing linearization 1 at simulation time 160 s. (RotSpeed=3 rpm, BldPitch1=0 deg)


Performing linearization 2 at simulation time 160.56 s. (RotSpeed=3 rpm, BldPitch1=0 deg)


Performing linearization 3 at simulation time 161.11 s. (RotSpeed=3 rpm, BldPitch1=0 deg)


Performing linearization 4 at simulation time 161.67 s. (RotSpeed=3 rpm, BldPitch1=0 deg)


Performing linearization 5 at simulation time 162.23 s. (RotSpeed=3 rpm, BldPitch1=0 deg)


Performing linearization 6 at simulation time 162.78 s. (RotSpeed=3 rpm, BldPitch1=0 deg)


Performing linearization 7 at simulation time 163.34 s. (RotSpeed=3 rpm, BldPitch1=0 deg)


Performing linearization 8 at simulation time 163.89 s. (RotSpeed=3 rpm, BldPitch1=0 deg)


Performing linearization 9 at simulation time 164.45 s. (RotSpeed=3 rpm, BldPitch1=0 deg)


Performing linearization 10 at simulation time 165 s. (RotSpeed=3 rpm, BldPitch1=0 deg)


Performing linearization 11 at simulation time 165.56 s. (RotSpeed=3 rpm, BldPitch1=0 deg)


Performing linearization 12 at simulation time 166.11 s. (RotSpeed=3 rpm, BldPitch1=0 deg)


Performing linearization 13 at simulation time 166.67 s. (RotSpeed=3 rpm, BldPitch1=0 deg)


Performing linearization 14 at simulation time 167.23 s. (RotSpeed=3 rpm, BldPitch1=0 deg)


Performing linearization 15 at simulation time 167.78 s. (RotSpeed=3 rpm, BldPitch1=0 deg)


Performing linearization 16 at simulation time 168.34 s. (RotSpeed=3 rpm, BldPitch1=0 deg)


Performing linearization 17 at simulation time 168.89 s. (RotSpeed=3 rpm, BldPitch1=0 deg)


Performing linearization 18 at simulation time 169.45 s. (RotSpeed=3 rpm, BldPitch1=0 deg)


Performing linearization 19 at simulation time 170 s. (RotSpeed=3 rpm, BldPitch1=0 deg)


Performing linearization 20 at simulation time 170.56 s. (RotSpeed=3 rpm, BldPitch1=0 deg)


Performing linearization 21 at simulation time 171.11 s. (RotSpeed=3 rpm, BldPitch1=0 deg)


Performing linearization 22 at simulation time 171.67 s. (RotSpeed=3 rpm, BldPitch1=0 deg)


Performing linearization 23 at simulation time 172.23 s. (RotSpeed=3 rpm, BldPitch1=0 deg)


Performing linearization 24 at simulation time 172.78 s. (RotSpeed=3 rpm, BldPitch1=0 deg)


Performing linearization 25 at simulation time 173.34 s. (RotSpeed=3 rpm, BldPitch1=0 deg)


Performing linearization 26 at simulation time 173.89 s. (RotSpeed=3 rpm, BldPitch1=0 deg)


Performing linearization 27 at simulation time 174.45 s. (RotSpeed=3 rpm, BldPitch1=0 deg)


Performing linearization 28 at simulation time 175 s. (RotSpeed=3 rpm, BldPitch1=0 deg)


Performing linearization 29 at simulation time 175.56 s. (RotSpeed=3 rpm, BldPitch1=0 deg)


Performing linearization 30 at simulation time 176.11 s. (RotSpeed=3 rpm, BldPitch1=0 deg)


Performing linearization 31 at simulation time 176.67 s. (RotSpeed=3 rpm, BldPitch1=0 deg)


Performing linearization 32 at simulation time 177.23 s. (RotSpeed=3 rpm, BldPitch1=0 deg)


Performing linearization 33 at simulation time 177.78 s. (RotSpeed=3 rpm, BldPitch1=0 deg)


Performing linearization 34 at simulation time 178.34 s. (RotSpeed=3 rpm, BldPitch1=0 deg)


Performing linearization 35 at simulation time 178.89 s. (RotSpeed=3 rpm, BldPitch1=0 deg)


Performing linearization 36 at simulation time 179.45 s. (RotSpeed=3 rpm, BldPitch1=0 deg)




Total Real Time:       23.988 seconds
Total CPU Time:        23.734 seconds
Simulation CPU Time:   23.719 seconds
Simulated Time:        179.45 seconds
Time Ratio (Sim/CPU):  7.5657

OpenFAST terminated normally.

