

**************************************************************************************************
OpenFAST

Copyright (C) 2023 National Renewable Energy Laboratory
Copyright (C) 2023 Envision Energy USA LTD

This program is licensed under Apache License Version 2.0 and comes with ABSOLUTELY NO WARRANTY.
See the "LICENSE" file distributed with this software for details.
**************************************************************************************************

OpenFAST-v3.5.1
Compile Info:
- Compiler: Intel(R) Fortran Compiler 2021
- Architecture: 64 bit
- Precision: single
- OpenMP: No
- Date: Oct 20 2023
- Time: 13:40:29
Execution Info:
- Date: 01/17/2026
- Time: 06:32:31-0500


OpenFAST input file heading:

FAST Certification Test #18: NREL 5.0 MW Baseline Wind Turbine (Onshore)


Running ElastoDyn.

Nodal outputs section of ElastoDyn input file not found or improperly formatted.

Time: 0 of 300 seconds.

Time: 3 of 300 seconds.  Estimated final completion at 06:32:58.

Time: 6 of 300 seconds.  Estimated final completion at 06:32:53.

Time: 9 of 300 seconds.  Estimated final completion at 06:32:58.

Time: 12 of 300 seconds.  Estimated final completion at 06:32:55.

Time: 15 of 300 seconds.  Estimated final completion at 06:32:54.

Time: 18 of 300 seconds.  Estimated final completion at 06:32:55.

Time: 21 of 300 seconds.  Estimated final completion at 06:32:55.

Time: 24 of 300 seconds.  Estimated final completion at 06:32:57.

Time: 27 of 300 seconds.  Estimated final completion at 06:32:55.

Time: 30 of 300 seconds.  Estimated final completion at 06:32:55.

Time: 33 of 300 seconds.  Estimated final completion at 06:32:54.

Time: 36 of 300 seconds.  Estimated final completion at 06:32:55.

Time: 39 of 300 seconds.  Estimated final completion at 06:32:56.

Time: 42 of 300 seconds.  Estimated final completion at 06:32:54.

Time: 45 of 300 seconds.  Estimated final completion at 06:32:54.

Time: 48 of 300 seconds.  Estimated final completion at 06:32:55.

Time: 51 of 300 seconds.  Estimated final completion at 06:32:54.

Time: 54 of 300 seconds.  Estimated final completion at 06:32:54.

Time: 57 of 300 seconds.  Estimated final completion at 06:32:55.

Time: 60 of 300 seconds.  Estimated final completion at 06:32:54.

Time: 63 of 300 seconds.  Estimated final completion at 06:32:56.

Time: 66 of 300 seconds.  Estimated final completion at 06:32:55.

Time: 69 of 300 seconds.  Estimated final completion at 06:32:55.

Time: 72 of 300 seconds.  Estimated final completion at 06:32:56.

Time: 75 of 300 seconds.  Estimated final completion at 06:32:55.

Time: 78 of 300 seconds.  Estimated final completion at 06:32:54.

Time: 81 of 300 seconds.  Estimated final completion at 06:32:55.

Time: 84 of 300 seconds.  Estimated final completion at 06:32:56.

Time: 87 of 300 seconds.  Estimated final completion at 06:32:55.

Time: 90 of 300 seconds.  Estimated final completion at 06:32:54.

Time: 93 of 300 seconds.  Estimated final completion at 06:32:55.

Time: 96 of 300 seconds.  Estimated final completion at 06:32:56.

Time: 99 of 300 seconds.  Estimated final completion at 06:32:55.

Time: 102 of 300 seconds.  Estimated final completion at 06:32:54.

Time: 105 of 300 seconds.  Estimated final completion at 06:32:55.

Time: 108 of 300 seconds.  Estimated final completion at 06:32:56.

Time: 111 of 300 seconds.  Estimated final completion at 06:32:55.

Time: 114 of 300 seconds.  Estimated final completion at 06:32:55.

Time: 117 of 300 seconds.  Estimated final completion at 06:32:56.

Time: 120 of 300 seconds.  Estimated final completion at 06:32:54.

Time: 123 of 300 seconds.  Estimated final completion at 06:32:54.

Time: 126 of 300 seconds.  Estimated final completion at 06:32:56.

Time: 129 of 300 seconds.  Estimated final completion at 06:32:56.

Time: 132 of 300 seconds.  Estimated final completion at 06:32:56.

Time: 135 of 300 seconds.  Estimated final completion at 06:32:54.

Time: 138 of 300 seconds.  Estimated final completion at 06:32:55.

Time: 141 of 300 seconds.  Estimated final completion at 06:32:55.

Time: 144 of 300 seconds.  Estimated final completion at 06:32:55.

Time: 147 of 300 seconds.  Estimated final completion at 06:32:56.

Time: 150 of 300 seconds.  Estimated final completion at 06:32:56.

Time: 153 of 300 seconds.  Estimated final completion at 06:32:55.

Time: 156 of 300 seconds.  Estimated final completion at 06:32:56.

Time: 159 of 300 seconds.  Estimated final completion at 06:32:56.

Time: 162 of 300 seconds.  Estimated final completion at 06:32:55.

Time: 165 of 300 seconds.  Estimated final completion at 06:32:55.

Time: 168 of 300 seconds.  Estimated final completion at 06:32:55.

Time: 171 of 300 seconds.  Estimated final completion at 06:32:55.

Time: 174 of 300 seconds.  Estimated final completion at 06:32:55.

Time: 177 of 300 seconds.  Estimated final completion at 06:32:55.

Time: 180 of 300 seconds.  Estimated final completion at 06:32:54.

Time: 183 of 300 seconds.  Estimated final completion at 06:32:54.

Time: 186 of 300 seconds.  Estimated final completion at 06:32:55.

Time: 189 of 300 seconds.  Estimated final completion at 06:32:55.

Time: 192 of 300 seconds.  Estimated final completion at 06:32:55.

Time: 195 of 300 seconds.  Estimated final completion at 06:32:55.

Time: 198 of 300 seconds.  Estimated final completion at 06:32:55.

Time: 201 of 300 seconds.  Estimated final completion at 06:32:54.

Time: 204 of 300 seconds.  Estimated final completion at 06:32:56.

Time: 207 of 300 seconds.  Estimated final completion at 06:32:54.

Time: 210 of 300 seconds.  Estimated final completion at 06:32:55.

Time: 213 of 300 seconds.  Estimated final completion at 06:32:55.

Time: 216 of 300 seconds.  Estimated final completion at 06:32:55.

Time: 219 of 300 seconds.  Estimated final completion at 06:32:55.

Time: 222 of 300 seconds.  Estimated final completion at 06:32:55.

Time: 225 of 300 seconds.  Estimated final completion at 06:32:55.

Time: 228 of 300 seconds.  Estimated final completion at 06:32:55.

Time: 231 of 300 seconds.  Estimated final completion at 06:32:55.

Time: 234 of 300 seconds.  Estimated final completion at 06:32:54.

Time: 237 of 300 seconds.  Estimated final completion at 06:32:55.

Time: 240 of 300 seconds.  Estimated final completion at 06:32:55.

Time: 243 of 300 seconds.  Estimated final completion at 06:32:55.

Time: 246 of 300 seconds.  Estimated final completion at 06:32:55.

Performing linearization 1 at simulation time 240 s. (RotSpeed=8.5 rpm, BldPitch1=0 deg)


Performing linearization 2 at simulation time 240.2 s. (RotSpeed=8.5 rpm, BldPitch1=0 deg)


Performing linearization 3 at simulation time 240.39 s. (RotSpeed=8.5 rpm, BldPitch1=0 deg)


Performing linearization 4 at simulation time 240.59 s. (RotSpeed=8.5 rpm, BldPitch1=0 deg)


Performing linearization 5 at simulation time 240.79 s. (RotSpeed=8.5 rpm, BldPitch1=0 deg)


Performing linearization 6 at simulation time 240.98 s. (RotSpeed=8.5 rpm, BldPitch1=0 deg)


Performing linearization 7 at simulation time 241.18 s. (RotSpeed=8.5 rpm, BldPitch1=0 deg)


Performing linearization 8 at simulation time 241.38 s. (RotSpeed=8.5 rpm, BldPitch1=0 deg)


Performing linearization 9 at simulation time 241.57 s. (RotSpeed=8.5 rpm, BldPitch1=0 deg)


Performing linearization 10 at simulation time 241.77 s. (RotSpeed=8.5 rpm, BldPitch1=0 deg)


Performing linearization 11 at simulation time 241.96 s. (RotSpeed=8.5 rpm, BldPitch1=0 deg)


Performing linearization 12 at simulation time 242.16 s. (RotSpeed=8.5 rpm, BldPitch1=0 deg)


Performing linearization 13 at simulation time 242.36 s. (RotSpeed=8.5 rpm, BldPitch1=0 deg)


Performing linearization 14 at simulation time 242.55 s. (RotSpeed=8.5 rpm, BldPitch1=0 deg)


Performing linearization 15 at simulation time 242.75 s. (RotSpeed=8.5 rpm, BldPitch1=0 deg)


Performing linearization 16 at simulation time 242.94 s. (RotSpeed=8.5 rpm, BldPitch1=0 deg)


Performing linearization 17 at simulation time 243.14 s. (RotSpeed=8.5 rpm, BldPitch1=0 deg)


Performing linearization 18 at simulation time 243.34 s. (RotSpeed=8.5 rpm, BldPitch1=0 deg)


Performing linearization 19 at simulation time 243.53 s. (RotSpeed=8.5 rpm, BldPitch1=0 deg)


Performing linearization 20 at simulation time 243.73 s. (RotSpeed=8.5 rpm, BldPitch1=0 deg)


Performing linearization 21 at simulation time 243.93 s. (RotSpeed=8.5 rpm, BldPitch1=0 deg)


Performing linearization 22 at simulation time 244.12 s. (RotSpeed=8.5 rpm, BldPitch1=0 deg)


Performing linearization 23 at simulation time 244.32 s. (RotSpeed=8.5 rpm, BldPitch1=0 deg)


Performing linearization 24 at simulation time 244.51 s. (RotSpeed=8.5 rpm, BldPitch1=0 deg)


Performing linearization 25 at simulation time 244.71 s. (RotSpeed=8.5 rpm, BldPitch1=0 deg)


Performing linearization 26 at simulation time 244.91 s. (RotSpeed=8.5 rpm, BldPitch1=0 deg)


Performing linearization 27 at simulation time 245.1 s. (RotSpeed=8.5 rpm, BldPitch1=0 deg)


Performing linearization 28 at simulation time 245.3 s. (RotSpeed=8.5 rpm, BldPitch1=0 deg)


Performing linearization 29 at simulation time 245.49 s. (RotSpeed=8.5 rpm, BldPitch1=0 deg)


Performing linearization 30 at simulation time 245.69 s. (RotSpeed=8.5 rpm, BldPitch1=0 deg)


Performing linearization 31 at simulation time 245.89 s. (RotSpeed=8.5 rpm, BldPitch1=0 deg)


Performing linearization 32 at simulation time 246.08 s. (RotSpeed=8.5 rpm, BldPitch1=0 deg)


Performing linearization 33 at simulation time 246.28 s. (RotSpeed=8.5 rpm, BldPitch1=0 deg)


Performing linearization 34 at simulation time 246.48 s. (RotSpeed=8.5 rpm, BldPitch1=0 deg)


Performing linearization 35 at simulation time 246.67 s. (RotSpeed=8.5 rpm, BldPitch1=0 deg)


Performing linearization 36 at simulation time 246.87 s. (RotSpeed=8.5 rpm, BldPitch1=0 deg)




Total Real Time:       28.339 seconds
Total CPU Time:        27.953 seconds
Simulation CPU Time:   27.938 seconds
Simulated Time:        246.87 seconds
Time Ratio (Sim/CPU):  8.8365

OpenFAST terminated normally.

