

**************************************************************************************************
OpenFAST

Copyright (C) 2023 National Renewable Energy Laboratory
Copyright (C) 2023 Envision Energy USA LTD

This program is licensed under Apache License Version 2.0 and comes with ABSOLUTELY NO WARRANTY.
See the "LICENSE" file distributed with this software for details.
**************************************************************************************************

OpenFAST-v3.5.1
Compile Info:
- Compiler: Intel(R) Fortran Compiler 2021
- Architecture: 64 bit
- Precision: single
- OpenMP: No
- Date: Oct 20 2023
- Time: 13:40:29
Execution Info:
- Date: 01/17/2026
- Time: 06:32:31-0500


OpenFAST input file heading:

FAST Certification Test #18: NREL 5.0 MW Baseline Wind Turbine (Onshore)


Running ElastoDyn.

Nodal outputs section of ElastoDyn input file not found or improperly formatted.

Time: 0 of 300 seconds.

Time: 3 of 300 seconds.  Estimated final completion at 06:32:54.

Time: 6 of 300 seconds.  Estimated final completion at 06:32:53.

Time: 9 of 300 seconds.  Estimated final completion at 06:32:55.

Time: 12 of 300 seconds.  Estimated final completion at 06:32:54.

Time: 15 of 300 seconds.  Estimated final completion at 06:32:56.

Time: 18 of 300 seconds.  Estimated final completion at 06:32:55.

Time: 21 of 300 seconds.  Estimated final completion at 06:32:54.

Time: 24 of 300 seconds.  Estimated final completion at 06:32:56.

Time: 27 of 300 seconds.  Estimated final completion at 06:32:55.

Time: 30 of 300 seconds.  Estimated final completion at 06:32:56.

Time: 33 of 300 seconds.  Estimated final completion at 06:32:55.

Time: 36 of 300 seconds.  Estimated final completion at 06:32:55.

Time: 39 of 300 seconds.  Estimated final completion at 06:32:57.

Time: 42 of 300 seconds.  Estimated final completion at 06:32:54.

Time: 45 of 300 seconds.  Estimated final completion at 06:32:55.

Time: 48 of 300 seconds.  Estimated final completion at 06:32:56.

Time: 51 of 300 seconds.  Estimated final completion at 06:32:56.

Time: 54 of 300 seconds.  Estimated final completion at 06:32:55.

Time: 57 of 300 seconds.  Estimated final completion at 06:32:56.

Time: 60 of 300 seconds.  Estimated final completion at 06:32:55.

Time: 63 of 300 seconds.  Estimated final completion at 06:32:56.

Time: 66 of 300 seconds.  Estimated final completion at 06:32:54.

Time: 69 of 300 seconds.  Estimated final completion at 06:32:55.

Time: 72 of 300 seconds.  Estimated final completion at 06:32:55.

Time: 75 of 300 seconds.  Estimated final completion at 06:32:55.

Time: 78 of 300 seconds.  Estimated final completion at 06:32:54.

Time: 81 of 300 seconds.  Estimated final completion at 06:32:54.

Time: 84 of 300 seconds.  Estimated final completion at 06:32:54.

Time: 87 of 300 seconds.  Estimated final completion at 06:32:55.

Time: 90 of 300 seconds.  Estimated final completion at 06:32:56.

Time: 93 of 300 seconds.  Estimated final completion at 06:32:56.

Time: 96 of 300 seconds.  Estimated final completion at 06:32:55.

Time: 99 of 300 seconds.  Estimated final completion at 06:32:55.

Time: 102 of 300 seconds.  Estimated final completion at 06:32:56.

Time: 105 of 300 seconds.  Estimated final completion at 06:32:55.

Time: 108 of 300 seconds.  Estimated final completion at 06:32:55.

Time: 111 of 300 seconds.  Estimated final completion at 06:32:55.

Time: 114 of 300 seconds.  Estimated final completion at 06:32:56.

Time: 117 of 300 seconds.  Estimated final completion at 06:32:55.

Time: 120 of 300 seconds.  Estimated final completion at 06:32:56.

Time: 123 of 300 seconds.  Estimated final completion at 06:32:55.

Time: 126 of 300 seconds.  Estimated final completion at 06:32:55.

Time: 129 of 300 seconds.  Estimated final completion at 06:32:55.

Time: 132 of 300 seconds.  Estimated final completion at 06:32:54.

Time: 135 of 300 seconds.  Estimated final completion at 06:32:54.

Time: 138 of 300 seconds.  Estimated final completion at 06:32:55.

Time: 141 of 300 seconds.  Estimated final completion at 06:32:56.

Time: 144 of 300 seconds.  Estimated final completion at 06:32:55.

Performing linearization 1 at simulation time 141.43 s. (RotSpeed=14 rpm, BldPitch1=0 deg)


Performing linearization 2 at simulation time 141.55 s. (RotSpeed=14 rpm, BldPitch1=0 deg)


Performing linearization 3 at simulation time 141.67 s. (RotSpeed=14 rpm, BldPitch1=0 deg)


Performing linearization 4 at simulation time 141.79 s. (RotSpeed=14 rpm, BldPitch1=0 deg)


Performing linearization 5 at simulation time 141.91 s. (RotSpeed=14 rpm, BldPitch1=0 deg)


Performing linearization 6 at simulation time 142.03 s. (RotSpeed=14 rpm, BldPitch1=0 deg)


Performing linearization 7 at simulation time 142.14 s. (RotSpeed=14 rpm, BldPitch1=0 deg)


Performing linearization 8 at simulation time 142.26 s. (RotSpeed=14 rpm, BldPitch1=0 deg)


Performing linearization 9 at simulation time 142.38 s. (RotSpeed=14 rpm, BldPitch1=0 deg)


Performing linearization 10 at simulation time 142.5 s. (RotSpeed=14 rpm, BldPitch1=0 deg)


Performing linearization 11 at simulation time 142.62 s. (RotSpeed=14 rpm, BldPitch1=0 deg)


Performing linearization 12 at simulation time 142.74 s. (RotSpeed=14 rpm, BldPitch1=0 deg)


Performing linearization 13 at simulation time 142.86 s. (RotSpeed=14 rpm, BldPitch1=0 deg)


Performing linearization 14 at simulation time 142.98 s. (RotSpeed=14 rpm, BldPitch1=0 deg)


Performing linearization 15 at simulation time 143.1 s. (RotSpeed=14 rpm, BldPitch1=0 deg)


Performing linearization 16 at simulation time 143.22 s. (RotSpeed=14 rpm, BldPitch1=0 deg)


Performing linearization 17 at simulation time 143.34 s. (RotSpeed=14 rpm, BldPitch1=0 deg)



Performing linearization 18 at simulation time 143.46 s. (RotSpeed=14 rpm, BldPitch1=0 deg)


Performing linearization 19 at simulation time 143.58 s. (RotSpeed=14 rpm, BldPitch1=0 deg)


Performing linearization 20 at simulation time 143.69 s. (RotSpeed=14 rpm, BldPitch1=0 deg)


Performing linearization 21 at simulation time 143.81 s. (RotSpeed=14 rpm, BldPitch1=0 deg)


Performing linearization 22 at simulation time 143.93 s. (RotSpeed=14 rpm, BldPitch1=0 deg)


Performing linearization 23 at simulation time 144.05 s. (RotSpeed=14 rpm, BldPitch1=0 deg)


Performing linearization 24 at simulation time 144.17 s. (RotSpeed=14 rpm, BldPitch1=0 deg)


Performing linearization 25 at simulation time 144.29 s. (RotSpeed=14 rpm, BldPitch1=0 deg)


Performing linearization 26 at simulation time 144.41 s. (RotSpeed=14 rpm, BldPitch1=0 deg)


Performing linearization 27 at simulation time 144.53 s. (RotSpeed=14 rpm, BldPitch1=0 deg)


Performing linearization 28 at simulation time 144.64 s. (RotSpeed=14 rpm, BldPitch1=0 deg)


Performing linearization 29 at simulation time 144.76 s. (RotSpeed=14 rpm, BldPitch1=0 deg)


Performing linearization 30 at simulation time 144.88 s. (RotSpeed=14 rpm, BldPitch1=0 deg)


Performing linearization 31 at simulation time 145 s. (RotSpeed=14 rpm, BldPitch1=0 deg)


Performing linearization 32 at simulation time 145.12 s. (RotSpeed=14 rpm, BldPitch1=0 deg)


Performing linearization 33 at simulation time 145.24 s. (RotSpeed=14 rpm, BldPitch1=0 deg)


Performing linearization 34 at simulation time 145.36 s. (RotSpeed=14 rpm, BldPitch1=0 deg)


Performing linearization 35 at simulation time 145.48 s. (RotSpeed=14 rpm, BldPitch1=0 deg)


Performing linearization 36 at simulation time 145.6 s. (RotSpeed=14 rpm, BldPitch1=0 deg)




Total Real Time:       21.777 seconds
Total CPU Time:        21.578 seconds
Simulation CPU Time:   21.562 seconds
Simulated Time:        145.6 seconds
Time Ratio (Sim/CPU):  6.7525

OpenFAST terminated normally.


