

**************************************************************************************************
OpenFAST

Copyright (C) 2023 National Renewable Energy Laboratory
Copyright (C) 2023 Envision Energy USA LTD

This program is licensed under Apache License Version 2.0 and comes with ABSOLUTELY NO WARRANTY.
See the "LICENSE" file distributed with this software for details.
**************************************************************************************************

OpenFAST-v3.5.1
Compile Info:
- Compiler: Intel(R) Fortran Compiler 2021
- Architecture: 64 bit
- Precision: single
- OpenMP: No
- Date: Oct 20 2023
- Time: 13:40:29
Execution Info:
- Date: 01/17/2026
- Time: 06:32:31-0500


OpenFAST input file heading:

FAST Certification Test #18: NREL 5.0 MW Baseline Wind Turbine (Onshore)


Running ElastoDyn.

Nodal outputs section of ElastoDyn input file not found or improperly formatted.

Time: 0 of 300 seconds.

Time: 3 of 300 seconds.  Estimated final completion at 06:32:56.

Time: 6 of 300 seconds.  Estimated final completion at 06:32:55.

Time: 9 of 300 seconds.  Estimated final completion at 06:32:56.

Time: 12 of 300 seconds.  Estimated final completion at 06:32:55.

Time: 15 of 300 seconds.  Estimated final completion at 06:32:56.

Time: 18 of 300 seconds.  Estimated final completion at 06:32:55.

Time: 21 of 300 seconds.  Estimated final completion at 06:32:55.

Time: 24 of 300 seconds.  Estimated final completion at 06:32:55.

Time: 27 of 300 seconds.  Estimated final completion at 06:32:55.

Time: 30 of 300 seconds.  Estimated final completion at 06:32:54.

Time: 33 of 300 seconds.  Estimated final completion at 06:32:56.

Time: 36 of 300 seconds.  Estimated final completion at 06:32:54.

Performing linearization 1 at simulation time 33.85 s. (RotSpeed=19.5 rpm, BldPitch1=0 deg)


Performing linearization 2 at simulation time 33.938 s. (RotSpeed=19.5 rpm, BldPitch1=0 deg)


Performing linearization 3 at simulation time 34.019 s. (RotSpeed=19.5 rpm, BldPitch1=0 deg)


Performing linearization 4 at simulation time 34.106 s. (RotSpeed=19.5 rpm, BldPitch1=0 deg)


Performing linearization 5 at simulation time 34.194 s. (RotSpeed=19.5 rpm, BldPitch1=0 deg)


Performing linearization 6 at simulation time 34.275 s. (RotSpeed=19.5 rpm, BldPitch1=0 deg)


Performing linearization 7 at simulation time 34.363 s. (RotSpeed=19.5 rpm, BldPitch1=0 deg)


Performing linearization 8 at simulation time 34.45 s. (RotSpeed=19.5 rpm, BldPitch1=0 deg)


Performing linearization 9 at simulation time 34.531 s. (RotSpeed=19.5 rpm, BldPitch1=0 deg)


Performing linearization 10 at simulation time 34.619 s. (RotSpeed=19.5 rpm, BldPitch1=0 deg)


Performing linearization 11 at simulation time 34.706 s. (RotSpeed=19.5 rpm, BldPitch1=0 deg)


Performing linearization 12 at simulation time 34.788 s. (RotSpeed=19.5 rpm, BldPitch1=0 deg)


Performing linearization 13 at simulation time 34.875 s. (RotSpeed=19.5 rpm, BldPitch1=0 deg)


Performing linearization 14 at simulation time 34.962 s. (RotSpeed=19.5 rpm, BldPitch1=0 deg)


Performing linearization 15 at simulation time 35.044 s. (RotSpeed=19.5 rpm, BldPitch1=0 deg)


Performing linearization 16 at simulation time 35.131 s. (RotSpeed=19.5 rpm, BldPitch1=0 deg)


Performing linearization 17 at simulation time 35.219 s. (RotSpeed=19.5 rpm, BldPitch1=0 deg)


Performing linearization 18 at simulation time 35.3 s. (RotSpeed=19.5 rpm, BldPitch1=0 deg)


Performing linearization 19 at simulation time 35.388 s. (RotSpeed=19.5 rpm, BldPitch1=0 deg)


Performing linearization 20 at simulation time 35.475 s. (RotSpeed=19.5 rpm, BldPitch1=0 deg)


Performing linearization 21 at simulation time 35.556 s. (RotSpeed=19.5 rpm, BldPitch1=0 deg)


Performing linearization 22 at simulation time 35.644 s. (RotSpeed=19.5 rpm, BldPitch1=0 deg)


Performing linearization 23 at simulation time 35.731 s. (RotSpeed=19.5 rpm, BldPitch1=0 deg)


Performing linearization 24 at simulation time 35.812 s. (RotSpeed=19.5 rpm, BldPitch1=0 deg)


Performing linearization 25 at simulation time 35.9 s. (RotSpeed=19.5 rpm, BldPitch1=0 deg)


Performing linearization 26 at simulation time 35.988 s. (RotSpeed=19.5 rpm, BldPitch1=0 deg)


Performing linearization 27 at simulation time 36.069 s. (RotSpeed=19.5 rpm, BldPitch1=0 deg)


Performing linearization 28 at simulation time 36.156 s. (RotSpeed=19.5 rpm, BldPitch1=0 deg)


Performing linearization 29 at simulation time 36.244 s. (RotSpeed=19.5 rpm, BldPitch1=0 deg)


Performing linearization 30 at simulation time 36.325 s. (RotSpeed=19.5 rpm, BldPitch1=0 deg)


Performing linearization 31 at simulation time 36.413 s. (RotSpeed=19.5 rpm, BldPitch1=0 deg)


Performing linearization 32 at simulation time 36.5 s. (RotSpeed=19.5 rpm, BldPitch1=0 deg)


Performing linearization 33 at simulation time 36.581 s. (RotSpeed=19.5 rpm, BldPitch1=0 deg)


Performing linearization 34 at simulation time 36.669 s. (RotSpeed=19.5 rpm, BldPitch1=0 deg)


Performing linearization 35 at simulation time 36.756 s. (RotSpeed=19.5 rpm, BldPitch1=0 deg)


Performing linearization 36 at simulation time 36.844 s. (RotSpeed=19.5 rpm, BldPitch1=0 deg)




Total Real Time:       13.536 seconds
Total CPU Time:        13.312 seconds
Simulation CPU Time:   13.297 seconds
Simulated Time:        36.844 seconds
Time Ratio (Sim/CPU):  2.7709

OpenFAST terminated normally.

