

**************************************************************************************************
OpenFAST

Copyright (C) 2023 National Renewable Energy Laboratory
Copyright (C) 2023 Envision Energy USA LTD

This program is licensed under Apache License Version 2.0 and comes with ABSOLUTELY NO WARRANTY.
See the "LICENSE" file distributed with this software for details.
**************************************************************************************************


OpenFAST-v3.5.1

Compile Info:
- Compiler: Intel(R) Fortran Compiler 2021

- Architecture: 64 bit
- Precision: single
- OpenMP: No

- Date: Oct 20 2023
- Time: 13:40:29

Execution Info:
- Date: 01/17/2026

- Time: 04:54:16-0500


OpenFAST input file heading:

FAST Certification Test #18: NREL 5.0 MW Baseline Wind Turbine (Onshore)


Running ElastoDyn.

Nodal outputs section of ElastoDyn input file not found or improperly formatted.

Running AeroDyn.

AD15 Nodal Outputs: Nodal output section of AeroDyn input file not found or improperly formatted.

Skipping nodal outputs.

Running InflowWind.

Time: 0 of 300 seconds.

Time: 3 of 300 seconds.  Estimated final completion at 04:54:55.

Time: 6 of 300 seconds.  Estimated final completion at 04:54:56.

Time: 9 of 300 seconds.  Estimated final completion at 04:54:54.

Time: 12 of 300 seconds.  Estimated final completion at 04:54:55.

Time: 15 of 300 seconds.  Estimated final completion at 04:54:53.

Time: 18 of 300 seconds.  Estimated final completion at 04:54:53.

Time: 21 of 300 seconds.  Estimated final completion at 04:54:54.

Time: 24 of 300 seconds.  Estimated final completion at 04:54:55.

Time: 27 of 300 seconds.  Estimated final completion at 04:54:55.

Time: 30 of 300 seconds.  Estimated final completion at 04:55:01.

Time: 33 of 300 seconds.  Estimated final completion at 04:54:52.

Time: 36 of 300 seconds.  Estimated final completion at 04:54:55.

Time: 39 of 300 seconds.  Estimated final completion at 04:54:54.

Time: 42 of 300 seconds.  Estimated final completion at 04:54:53.

Time: 45 of 300 seconds.  Estimated final completion at 04:54:54.

Time: 48 of 300 seconds.  Estimated final completion at 04:54:54.

Time: 51 of 300 seconds.  Estimated final completion at 04:54:54.

Time: 54 of 300 seconds.  Estimated final completion at 04:54:55.

Time: 57 of 300 seconds.  Estimated final completion at 04:54:53.

Time: 60 of 300 seconds.  Estimated final completion at 04:54:53.

Time: 63 of 300 seconds.  Estimated final completion at 04:54:53.

Time: 66 of 300 seconds.  Estimated final completion at 04:54:55.

Time: 69 of 300 seconds.  Estimated final completion at 04:54:54.

Performing linearization 1 at simulation time 66.519 s. (RotSpeed=11.73 rpm, BldPitch1=-0.32 deg)


Performing linearization 2 at simulation time 66.656 s. (RotSpeed=11.73 rpm, BldPitch1=-0.32 deg)


Performing linearization 3 at simulation time 66.8 s. (RotSpeed=11.73 rpm, BldPitch1=-0.32 deg)


Performing linearization 4 at simulation time 66.944 s. (RotSpeed=11.73 rpm, BldPitch1=-0.32 deg)


Performing linearization 5 at simulation time 67.088 s. (RotSpeed=11.73 rpm, BldPitch1=-0.32 deg)


Performing linearization 6 at simulation time 67.225 s. (RotSpeed=11.73 rpm, BldPitch1=-0.32 deg)


Performing linearization 7 at simulation time 67.369 s. (RotSpeed=11.73 rpm, BldPitch1=-0.32 deg)


Performing linearization 8 at simulation time 67.513 s. (RotSpeed=11.73 rpm, BldPitch1=-0.32 deg)


Performing linearization 9 at simulation time 67.656 s. (RotSpeed=11.73 rpm, BldPitch1=-0.32 deg)


Performing linearization 10 at simulation time 67.794 s. (RotSpeed=11.73 rpm, BldPitch1=-0.32 deg)


Performing linearization 11 at simulation time 67.938 s. (RotSpeed=11.73 rpm, BldPitch1=-0.32 deg)


Performing linearization 12 at simulation time 68.081 s. (RotSpeed=11.73 rpm, BldPitch1=-0.32 deg)


Performing linearization 13 at simulation time 68.225 s. (RotSpeed=11.73 rpm, BldPitch1=-0.32 deg)


Performing linearization 14 at simulation time 68.362 s. (RotSpeed=11.73 rpm, BldPitch1=-0.32 deg)


Performing linearization 15 at simulation time 68.506 s. (RotSpeed=11.73 rpm, BldPitch1=-0.32 deg)


Performing linearization 16 at simulation time 68.65 s. (RotSpeed=11.73 rpm, BldPitch1=-0.32 deg)


Performing linearization 17 at simulation time 68.794 s. (RotSpeed=11.73 rpm, BldPitch1=-0.32 deg)


Performing linearization 18 at simulation time 68.931 s. (RotSpeed=11.73 rpm, BldPitch1=-0.32 deg)


Performing linearization 19 at simulation time 69.075 s. (RotSpeed=11.73 rpm, BldPitch1=-0.32 deg)


Performing linearization 20 at simulation time 69.219 s. (RotSpeed=11.73 rpm, BldPitch1=-0.32 deg)


Performing linearization 21 at simulation time 69.362 s. (RotSpeed=11.73 rpm, BldPitch1=-0.32 deg)


Performing linearization 22 at simulation time 69.5 s. (RotSpeed=11.73 rpm, BldPitch1=-0.32 deg)


Performing linearization 23 at simulation time 69.644 s. (RotSpeed=11.73 rpm, BldPitch1=-0.32 deg)


Performing linearization 24 at simulation time 69.788 s. (RotSpeed=11.73 rpm, BldPitch1=-0.32 deg)


Performing linearization 25 at simulation time 69.925 s. (RotSpeed=11.73 rpm, BldPitch1=-0.32 deg)


Performing linearization 26 at simulation time 70.069 s. (RotSpeed=11.73 rpm, BldPitch1=-0.32 deg)


Performing linearization 27 at simulation time 70.213 s. (RotSpeed=11.73 rpm, BldPitch1=-0.32 deg)


Performing linearization 28 at simulation time 70.356 s. (RotSpeed=11.73 rpm, BldPitch1=-0.32 deg)


Performing linearization 29 at simulation time 70.494 s. (RotSpeed=11.73 rpm, BldPitch1=-0.32 deg)


Performing linearization 30 at simulation time 70.638 s. (RotSpeed=11.73 rpm, BldPitch1=-0.32 deg)


Performing linearization 31 at simulation time 70.781 s. (RotSpeed=11.73 rpm, BldPitch1=-0.32 deg)


Performing linearization 32 at simulation time 70.925 s. (RotSpeed=11.73 rpm, BldPitch1=-0.32 deg)


Performing linearization 33 at simulation time 71.062 s. (RotSpeed=11.73 rpm, BldPitch1=-0.32 deg)


Performing linearization 34 at simulation time 71.206 s. (RotSpeed=11.73 rpm, BldPitch1=-0.32 deg)


Performing linearization 35 at simulation time 71.35 s. (RotSpeed=11.73 rpm, BldPitch1=-0.32 deg)


Performing linearization 36 at simulation time 71.494 s. (RotSpeed=11.73 rpm, BldPitch1=-0.32 deg)




Total Real Time:       1.4603 minutes
Total CPU Time:        1.4406 minutes
Simulation CPU Time:   1.4396 minutes
Simulated Time:        1.1916 minutes
Time Ratio (Sim/CPU):  0.82771

OpenFAST terminated normally.

