

**************************************************************************************************
OpenFAST

Copyright (C) 2023 National Renewable Energy Laboratory
Copyright (C) 2023 Envision Energy USA LTD

This program is licensed under Apache License Version 2.0 and comes with ABSOLUTELY NO WARRANTY.
See the "LICENSE" file distributed with this software for details.
**************************************************************************************************


OpenFAST-v3.5.1
Compile Info:
- Compiler: Intel(R) Fortran Compiler 2021
- Architecture: 64 bit

- Precision: single
- OpenMP: No
- Date: Oct 20 2023
- Time: 13:40:29

Execution Info:
- Date: 01/17/2026

- Time: 04:54:16-0500


OpenFAST input file heading:

FAST Certification Test #18: NREL 5.0 MW Baseline Wind Turbine (Onshore)


Running ElastoDyn.

Nodal outputs section of ElastoDyn input file not found or improperly formatted.

Running AeroDyn.

AD15 Nodal Outputs: Nodal output section of AeroDyn input file not found or improperly formatted.

Skipping nodal outputs.

Running InflowWind.

Time: 0 of 300 seconds.

Time: 3 of 300 seconds.  Estimated final completion at 04:54:57.

Time: 6 of 300 seconds.  Estimated final completion at 04:54:55.

Time: 9 of 300 seconds.  Estimated final completion at 04:54:55.

Time: 12 of 300 seconds.  Estimated final completion at 04:54:54.

Time: 15 of 300 seconds.  Estimated final completion at 04:54:53.

Time: 18 of 300 seconds.  Estimated final completion at 04:54:53.

Time: 21 of 300 seconds.  Estimated final completion at 04:54:55.

Time: 24 of 300 seconds.  Estimated final completion at 04:54:52.

Time: 27 of 300 seconds.  Estimated final completion at 04:54:53.

Time: 30 of 300 seconds.  Estimated final completion at 04:55:05.

Time: 33 of 300 seconds.  Estimated final completion at 04:54:53.

Time: 36 of 300 seconds.  Estimated final completion at 04:54:55.

Time: 39 of 300 seconds.  Estimated final completion at 04:54:53.

Time: 42 of 300 seconds.  Estimated final completion at 04:54:53.

Time: 45 of 300 seconds.  Estimated final completion at 04:54:53.

Time: 48 of 300 seconds.  Estimated final completion at 04:54:53.

Time: 51 of 300 seconds.  Estimated final completion at 04:54:54.

Time: 54 of 300 seconds.  Estimated final completion at 04:54:53.

Time: 57 of 300 seconds.  Estimated final completion at 04:54:53.

Performing linearization 1 at simulation time 54.55 s. (RotSpeed=12.1 rpm, BldPitch1=17.47 deg)


Performing linearization 2 at simulation time 54.688 s. (RotSpeed=12.1 rpm, BldPitch1=17.47 deg)


Performing linearization 3 at simulation time 54.825 s. (RotSpeed=12.1 rpm, BldPitch1=17.47 deg)


Performing linearization 4 at simulation time 54.963 s. (RotSpeed=12.1 rpm, BldPitch1=17.47 deg)


Performing linearization 5 at simulation time 55.1 s. (RotSpeed=12.1 rpm, BldPitch1=17.47 deg)


Performing linearization 6 at simulation time 55.238 s. (RotSpeed=12.1 rpm, BldPitch1=17.47 deg)


Performing linearization 7 at simulation time 55.375 s. (RotSpeed=12.1 rpm, BldPitch1=17.47 deg)


Performing linearization 8 at simulation time 55.513 s. (RotSpeed=12.1 rpm, BldPitch1=17.47 deg)


Performing linearization 9 at simulation time 55.65 s. (RotSpeed=12.1 rpm, BldPitch1=17.47 deg)


Performing linearization 10 at simulation time 55.788 s. (RotSpeed=12.1 rpm, BldPitch1=17.47 deg)


Performing linearization 11 at simulation time 55.925 s. (RotSpeed=12.1 rpm, BldPitch1=17.47 deg)


Performing linearization 12 at simulation time 56.062 s. (RotSpeed=12.1 rpm, BldPitch1=17.47 deg)


Performing linearization 13 at simulation time 56.2 s. (RotSpeed=12.1 rpm, BldPitch1=17.47 deg)


Performing linearization 14 at simulation time 56.338 s. (RotSpeed=12.1 rpm, BldPitch1=17.47 deg)


Performing linearization 15 at simulation time 56.475 s. (RotSpeed=12.1 rpm, BldPitch1=17.47 deg)


Performing linearization 16 at simulation time 56.613 s. (RotSpeed=12.1 rpm, BldPitch1=17.47 deg)


Performing linearization 17 at simulation time 56.75 s. (RotSpeed=12.1 rpm, BldPitch1=17.47 deg)


Performing linearization 18 at simulation time 56.888 s. (RotSpeed=12.1 rpm, BldPitch1=17.47 deg)


Performing linearization 19 at simulation time 57.025 s. (RotSpeed=12.1 rpm, BldPitch1=17.47 deg)


Performing linearization 20 at simulation time 57.169 s. (RotSpeed=12.1 rpm, BldPitch1=17.47 deg)


Performing linearization 21 at simulation time 57.306 s. (RotSpeed=12.1 rpm, BldPitch1=17.47 deg)


Performing linearization 22 at simulation time 57.444 s. (RotSpeed=12.1 rpm, BldPitch1=17.47 deg)


Performing linearization 23 at simulation time 57.581 s. (RotSpeed=12.1 rpm, BldPitch1=17.47 deg)


Performing linearization 24 at simulation time 57.719 s. (RotSpeed=12.1 rpm, BldPitch1=17.47 deg)


Performing linearization 25 at simulation time 57.856 s. (RotSpeed=12.1 rpm, BldPitch1=17.47 deg)


Performing linearization 26 at simulation time 57.994 s. (RotSpeed=12.1 rpm, BldPitch1=17.47 deg)


Performing linearization 27 at simulation time 58.131 s. (RotSpeed=12.1 rpm, BldPitch1=17.47 deg)


Performing linearization 28 at simulation time 58.269 s. (RotSpeed=12.1 rpm, BldPitch1=17.47 deg)


Performing linearization 29 at simulation time 58.406 s. (RotSpeed=12.1 rpm, BldPitch1=17.47 deg)


Performing linearization 30 at simulation time 58.544 s. (RotSpeed=12.1 rpm, BldPitch1=17.47 deg)


Performing linearization 31 at simulation time 58.681 s. (RotSpeed=12.1 rpm, BldPitch1=17.47 deg)


Performing linearization 32 at simulation time 58.819 s. (RotSpeed=12.1 rpm, BldPitch1=17.47 deg)


Performing linearization 33 at simulation time 58.956 s. (RotSpeed=12.1 rpm, BldPitch1=17.47 deg)


Performing linearization 34 at simulation time 59.094 s. (RotSpeed=12.1 rpm, BldPitch1=17.47 deg)


Performing linearization 35 at simulation time 59.231 s. (RotSpeed=12.1 rpm, BldPitch1=17.47 deg)


Performing linearization 36 at simulation time 59.369 s. (RotSpeed=12.1 rpm, BldPitch1=17.47 deg)




Total Real Time:       1.4541 minutes
Total CPU Time:        1.4359 minutes
Simulation CPU Time:   1.4349 minutes
Simulated Time:        0.98948 minutes
Time Ratio (Sim/CPU):  0.68958

OpenFAST terminated normally.

