

**************************************************************************************************
OpenFAST

Copyright (C) 2023 National Renewable Energy Laboratory
Copyright (C) 2023 Envision Energy USA LTD

This program is licensed under Apache License Version 2.0 and comes with ABSOLUTELY NO WARRANTY.
See the "LICENSE" file distributed with this software for details.
**************************************************************************************************

OpenFAST-v3.5.1
Compile Info:
- Compiler: Intel(R) Fortran Compiler 2021
- Architecture: 64 bit
- Precision: single
- OpenMP: No
- Date: Oct 20 2023
- Time: 13:40:29
Execution Info:
- Date: 04/09/2026
- Time: 13:26:58-0400


OpenFAST input file heading:

FAST Certification Test #18: NREL 5.0 MW Baseline Wind Turbine (Onshore)


Running ElastoDyn.

Nodal outputs section of ElastoDyn input file not found or improperly formatted.

Running AeroDyn.

AD15 Nodal Outputs: Nodal output section of AeroDyn input file not found or improperly formatted.

Skipping nodal outputs.

Running InflowWind.

Time: 0 of 300 seconds.

Time: 3 of 300 seconds.  Estimated final completion at 13:27:40.

Time: 6 of 300 seconds.  Estimated final completion at 13:27:40.

Time: 9 of 300 seconds.  Estimated final completion at 13:27:42.

Time: 12 of 300 seconds.  Estimated final completion at 13:27:41.

Time: 15 of 300 seconds.  Estimated final completion at 13:27:41.

Time: 18 of 300 seconds.  Estimated final completion at 13:27:39.

Time: 21 of 300 seconds.  Estimated final completion at 13:27:42.

Time: 24 of 300 seconds.  Estimated final completion at 13:27:41.

Time: 27 of 300 seconds.  Estimated final completion at 13:27:41.

Time: 30 of 300 seconds.  Estimated final completion at 13:27:41.

Time: 33 of 300 seconds.  Estimated final completion at 13:27:43.

Time: 36 of 300 seconds.  Estimated final completion at 13:27:41.

Time: 39 of 300 seconds.  Estimated final completion at 13:27:42.

Time: 42 of 300 seconds.  Estimated final completion at 13:27:40.

Time: 45 of 300 seconds.  Estimated final completion at 13:27:40.

Time: 48 of 300 seconds.  Estimated final completion at 13:27:39.

Time: 51 of 300 seconds.  Estimated final completion at 13:27:42.

Time: 54 of 300 seconds.  Estimated final completion at 13:27:40.

Time: 57 of 300 seconds.  Estimated final completion at 13:27:40.

Time: 60 of 300 seconds.  Estimated final completion at 13:27:41.

Time: 63 of 300 seconds.  Estimated final completion at 13:27:42.

Time: 66 of 300 seconds.  Estimated final completion at 13:27:41.

Time: 69 of 300 seconds.  Estimated final completion at 13:27:41.

Time: 72 of 300 seconds.  Estimated final completion at 13:27:42.

Time: 75 of 300 seconds.  Estimated final completion at 13:27:41.

Time: 78 of 300 seconds.  Estimated final completion at 13:27:42.

Time: 81 of 300 seconds.  Estimated final completion at 13:27:41.

Time: 84 of 300 seconds.  Estimated final completion at 13:27:40.

Time: 87 of 300 seconds.  Estimated final completion at 13:27:40.

Time: 90 of 300 seconds.  Estimated final completion at 13:27:40.

Time: 93 of 300 seconds.  Estimated final completion at 13:27:49.

Time: 96 of 300 seconds.  Estimated final completion at 13:27:43.

Time: 99 of 300 seconds.  Estimated final completion at 13:27:48.

Time: 102 of 300 seconds.  Estimated final completion at 13:27:43.

Time: 105 of 300 seconds.  Estimated final completion at 13:27:44.

Time: 108 of 300 seconds.  Estimated final completion at 13:27:41.

Time: 111 of 300 seconds.  Estimated final completion at 13:27:40.

Time: 114 of 300 seconds.  Estimated final completion at 13:27:42.

Time: 117 of 300 seconds.  Estimated final completion at 13:27:41.

Time: 120 of 300 seconds.  Estimated final completion at 13:27:43.

Time: 123 of 300 seconds.  Estimated final completion at 13:27:40.

Time: 126 of 300 seconds.  Estimated final completion at 13:27:40.

Time: 129 of 300 seconds.  Estimated final completion at 13:27:41.

Time: 132 of 300 seconds.  Estimated final completion at 13:27:44.

Time: 135 of 300 seconds.  Estimated final completion at 13:27:42.

Time: 138 of 300 seconds.  Estimated final completion at 13:27:42.

Time: 141 of 300 seconds.  Estimated final completion at 13:27:42.

Time: 144 of 300 seconds.  Estimated final completion at 13:27:43.

Time: 147 of 300 seconds.  Estimated final completion at 13:27:45.

Time: 150 of 300 seconds.  Estimated final completion at 13:27:41.

Time: 153 of 300 seconds.  Estimated final completion at 13:27:43.

Time: 156 of 300 seconds.  Estimated final completion at 13:27:42.

Time: 159 of 300 seconds.  Estimated final completion at 13:27:44.

Time: 162 of 300 seconds.  Estimated final completion at 13:27:44.

Time: 165 of 300 seconds.  Estimated final completion at 13:27:42.

Time: 168 of 300 seconds.  Estimated final completion at 13:27:43.

Time: 171 of 300 seconds.  Estimated final completion at 13:27:43.

Time: 174 of 300 seconds.  Estimated final completion at 13:27:44.

Time: 177 of 300 seconds.  Estimated final completion at 13:27:43.

Time: 180 of 300 seconds.  Estimated final completion at 13:27:44.

Time: 183 of 300 seconds.  Estimated final completion at 13:27:42.

Time: 186 of 300 seconds.  Estimated final completion at 13:27:43.

Time: 189 of 300 seconds.  Estimated final completion at 13:27:44.

Time: 192 of 300 seconds.  Estimated final completion at 13:27:44.

Time: 195 of 300 seconds.  Estimated final completion at 13:27:42.

Time: 198 of 300 seconds.  Estimated final completion at 13:27:43.

Time: 201 of 300 seconds.  Estimated final completion at 13:27:42.

Time: 204 of 300 seconds.  Estimated final completion at 13:27:42.

Time: 207 of 300 seconds.  Estimated final completion at 13:27:43.

Time: 210 of 300 seconds.  Estimated final completion at 13:27:42.

Time: 213 of 300 seconds.  Estimated final completion at 13:27:42.

Time: 216 of 300 seconds.  Estimated final completion at 13:27:43.

Time: 219 of 300 seconds.  Estimated final completion at 13:27:42.

Time: 222 of 300 seconds.  Estimated final completion at 13:27:42.

Time: 225 of 300 seconds.  Estimated final completion at 13:27:42.

Time: 228 of 300 seconds.  Estimated final completion at 13:27:43.

Time: 231 of 300 seconds.  Estimated final completion at 13:27:43.

Time: 234 of 300 seconds.  Estimated final completion at 13:27:42.

Time: 237 of 300 seconds.  Estimated final completion at 13:27:42.

Time: 240 of 300 seconds.  Estimated final completion at 13:27:42.

Time: 243 of 300 seconds.  Estimated final completion at 13:27:43.

Time: 246 of 300 seconds.  Estimated final completion at 13:27:42.

Time: 249 of 300 seconds.  Estimated final completion at 13:27:43.

Time: 252 of 300 seconds.  Estimated final completion at 13:27:43.

Time: 255 of 300 seconds.  Estimated final completion at 13:27:42.

Time: 258 of 300 seconds.  Estimated final completion at 13:27:42.

Time: 261 of 300 seconds.  Estimated final completion at 13:27:42.

Time: 264 of 300 seconds.  Estimated final completion at 13:27:42.

Time: 267 of 300 seconds.  Estimated final completion at 13:27:43.

Time: 270 of 300 seconds.  Estimated final completion at 13:27:43.

Time: 273 of 300 seconds.  Estimated final completion at 13:27:42.

Time: 276 of 300 seconds.  Estimated final completion at 13:27:43.

Time: 279 of 300 seconds.  Estimated final completion at 13:27:43.

Time: 282 of 300 seconds.  Estimated final completion at 13:27:43.



[WARNING] Steady state not found before end of simulation. Forcing linearization.

Performing linearization 1 at simulation time 0 s. (RotSpeed=6.97 rpm, BldPitch1=0 deg)




FAST_Linearize_T:Linearization was forced at simulation end. The linearized model may not be
sufficiently representative of the solution in steady state.




Total Real Time:       45.157 seconds
Total CPU Time:        43.969 seconds
Simulation CPU Time:   43.938 seconds
Simulated Time:        283.76 seconds
Time Ratio (Sim/CPU):  6.4582

OpenFAST terminated normally.

