

**************************************************************************************************
OpenFAST

Copyright (C) 2023 National Renewable Energy Laboratory
Copyright (C) 2023 Envision Energy USA LTD

This program is licensed under Apache License Version 2.0 and comes with ABSOLUTELY NO WARRANTY.
See the "LICENSE" file distributed with this software for details.
**************************************************************************************************

OpenFAST-v3.5.1
Compile Info:
- Compiler: Intel(R) Fortran Compiler 2021
- Architecture: 64 bit
- Precision: single
- OpenMP: No
- Date: Oct 20 2023
- Time: 13:40:29
Execution Info:
- Date: 04/09/2026
- Time: 13:26:58-0400


OpenFAST input file heading:

FAST Certification Test #18: NREL 5.0 MW Baseline Wind Turbine (Onshore)


Running ElastoDyn.

Nodal outputs section of ElastoDyn input file not found or improperly formatted.

Running AeroDyn.

AD15 Nodal Outputs: Nodal output section of AeroDyn input file not found or improperly formatted.

Skipping nodal outputs.

Running InflowWind.

Time: 0 of 300 seconds.

Time: 3 of 300 seconds.  Estimated final completion at 13:27:40.

Time: 6 of 300 seconds.  Estimated final completion at 13:27:39.

Time: 9 of 300 seconds.  Estimated final completion at 13:27:42.

Time: 12 of 300 seconds.  Estimated final completion at 13:27:40.

Time: 15 of 300 seconds.  Estimated final completion at 13:27:39.

Time: 18 of 300 seconds.  Estimated final completion at 13:27:39.

Time: 21 of 300 seconds.  Estimated final completion at 13:27:39.

Time: 24 of 300 seconds.  Estimated final completion at 13:27:41.

Time: 27 of 300 seconds.  Estimated final completion at 13:27:39.

Time: 30 of 300 seconds.  Estimated final completion at 13:27:38.

Time: 33 of 300 seconds.  Estimated final completion at 13:27:41.

Time: 36 of 300 seconds.  Estimated final completion at 13:27:38.

Time: 39 of 300 seconds.  Estimated final completion at 13:27:38.

Time: 42 of 300 seconds.  Estimated final completion at 13:27:37.

Time: 45 of 300 seconds.  Estimated final completion at 13:27:41.

Time: 48 of 300 seconds.  Estimated final completion at 13:27:40.

Time: 51 of 300 seconds.  Estimated final completion at 13:27:38.

Time: 54 of 300 seconds.  Estimated final completion at 13:27:40.

Time: 57 of 300 seconds.  Estimated final completion at 13:27:38.

Time: 60 of 300 seconds.  Estimated final completion at 13:27:39.

Time: 63 of 300 seconds.  Estimated final completion at 13:27:40.

Time: 66 of 300 seconds.  Estimated final completion at 13:27:39.

Time: 69 of 300 seconds.  Estimated final completion at 13:27:38.

Time: 72 of 300 seconds.  Estimated final completion at 13:27:39.

Time: 75 of 300 seconds.  Estimated final completion at 13:27:39.

Time: 78 of 300 seconds.  Estimated final completion at 13:27:39.

Time: 81 of 300 seconds.  Estimated final completion at 13:27:38.

Time: 84 of 300 seconds.  Estimated final completion at 13:27:37.

Time: 87 of 300 seconds.  Estimated final completion at 13:27:39.

Time: 90 of 300 seconds.  Estimated final completion at 13:27:38.

Time: 93 of 300 seconds.  Estimated final completion at 13:27:38.

Time: 96 of 300 seconds.  Estimated final completion at 13:27:44.

Time: 99 of 300 seconds.  Estimated final completion at 13:27:40.

Time: 102 of 300 seconds.  Estimated final completion at 13:27:41.

Time: 105 of 300 seconds.  Estimated final completion at 13:27:38.

Time: 108 of 300 seconds.  Estimated final completion at 13:27:40.

Time: 111 of 300 seconds.  Estimated final completion at 13:27:40.

Time: 114 of 300 seconds.  Estimated final completion at 13:27:38.

Time: 117 of 300 seconds.  Estimated final completion at 13:27:39.

Time: 120 of 300 seconds.  Estimated final completion at 13:27:38.

Time: 123 of 300 seconds.  Estimated final completion at 13:27:41.

Time: 126 of 300 seconds.  Estimated final completion at 13:27:41.

Time: 129 of 300 seconds.  Estimated final completion at 13:27:40.

Time: 132 of 300 seconds.  Estimated final completion at 13:27:39.

Time: 135 of 300 seconds.  Estimated final completion at 13:27:40.

Time: 138 of 300 seconds.  Estimated final completion at 13:27:39.

Time: 141 of 300 seconds.  Estimated final completion at 13:27:41.

Time: 144 of 300 seconds.  Estimated final completion at 13:27:40.

Time: 147 of 300 seconds.  Estimated final completion at 13:27:39.

Time: 150 of 300 seconds.  Estimated final completion at 13:27:40.

Time: 153 of 300 seconds.  Estimated final completion at 13:27:43.

Time: 156 of 300 seconds.  Estimated final completion at 13:27:39.

Time: 159 of 300 seconds.  Estimated final completion at 13:27:40.

Time: 162 of 300 seconds.  Estimated final completion at 13:27:40.

Time: 165 of 300 seconds.  Estimated final completion at 13:27:42.

Time: 168 of 300 seconds.  Estimated final completion at 13:27:41.

Time: 171 of 300 seconds.  Estimated final completion at 13:27:41.

Time: 174 of 300 seconds.  Estimated final completion at 13:27:41.

Time: 177 of 300 seconds.  Estimated final completion at 13:27:39.

Time: 180 of 300 seconds.  Estimated final completion at 13:27:40.

Time: 183 of 300 seconds.  Estimated final completion at 13:27:40.

Time: 186 of 300 seconds.  Estimated final completion at 13:27:40.

Time: 189 of 300 seconds.  Estimated final completion at 13:27:40.

Time: 192 of 300 seconds.  Estimated final completion at 13:27:40.

Time: 195 of 300 seconds.  Estimated final completion at 13:27:40.

Time: 198 of 300 seconds.  Estimated final completion at 13:27:40.

Time: 201 of 300 seconds.  Estimated final completion at 13:27:40.

Time: 204 of 300 seconds.  Estimated final completion at 13:27:40.

Time: 207 of 300 seconds.  Estimated final completion at 13:27:40.

Time: 210 of 300 seconds.  Estimated final completion at 13:27:40.

Time: 213 of 300 seconds.  Estimated final completion at 13:27:40.

Time: 216 of 300 seconds.  Estimated final completion at 13:27:39.

Time: 219 of 300 seconds.  Estimated final completion at 13:27:39.

Time: 222 of 300 seconds.  Estimated final completion at 13:27:41.

Time: 225 of 300 seconds.  Estimated final completion at 13:27:41.

Time: 228 of 300 seconds.  Estimated final completion at 13:27:41.

Time: 231 of 300 seconds.  Estimated final completion at 13:27:40.

Time: 234 of 300 seconds.  Estimated final completion at 13:27:39.

Time: 237 of 300 seconds.  Estimated final completion at 13:27:40.

Time: 240 of 300 seconds.  Estimated final completion at 13:27:40.

Time: 243 of 300 seconds.  Estimated final completion at 13:27:40.

Performing linearization 1 at simulation time 237.75 s. (RotSpeed=7.82 rpm, BldPitch1=0 deg)


Performing linearization 2 at simulation time 237.96 s. (RotSpeed=7.82 rpm, BldPitch1=0 deg)


Performing linearization 3 at simulation time 238.18 s. (RotSpeed=7.82 rpm, BldPitch1=0 deg)


Performing linearization 4 at simulation time 238.39 s. (RotSpeed=7.82 rpm, BldPitch1=0 deg)


Performing linearization 5 at simulation time 238.6 s. (RotSpeed=7.82 rpm, BldPitch1=0 deg)


Performing linearization 6 at simulation time 238.81 s. (RotSpeed=7.82 rpm, BldPitch1=0 deg)


Performing linearization 7 at simulation time 239.03 s. (RotSpeed=7.82 rpm, BldPitch1=0 deg)


Performing linearization 8 at simulation time 239.24 s. (RotSpeed=7.82 rpm, BldPitch1=0 deg)


Performing linearization 9 at simulation time 239.46 s. (RotSpeed=7.82 rpm, BldPitch1=0 deg)


Performing linearization 10 at simulation time 239.67 s. (RotSpeed=7.82 rpm, BldPitch1=0 deg)


Performing linearization 11 at simulation time 239.88 s. (RotSpeed=7.82 rpm, BldPitch1=0 deg)


Performing linearization 12 at simulation time 240.09 s. (RotSpeed=7.82 rpm, BldPitch1=0 deg)


Performing linearization 13 at simulation time 240.31 s. (RotSpeed=7.82 rpm, BldPitch1=0 deg)


Performing linearization 14 at simulation time 240.52 s. (RotSpeed=7.82 rpm, BldPitch1=0 deg)


Performing linearization 15 at simulation time 240.73 s. (RotSpeed=7.82 rpm, BldPitch1=0 deg)


Performing linearization 16 at simulation time 240.94 s. (RotSpeed=7.82 rpm, BldPitch1=0 deg)


Performing linearization 17 at simulation time 241.16 s. (RotSpeed=7.82 rpm, BldPitch1=0 deg)


Performing linearization 18 at simulation time 241.37 s. (RotSpeed=7.82 rpm, BldPitch1=0 deg)


Performing linearization 19 at simulation time 241.58 s. (RotSpeed=7.82 rpm, BldPitch1=0 deg)


Performing linearization 20 at simulation time 241.79 s. (RotSpeed=7.82 rpm, BldPitch1=0 deg)


Performing linearization 21 at simulation time 242.01 s. (RotSpeed=7.82 rpm, BldPitch1=0 deg)


Performing linearization 22 at simulation time 242.23 s. (RotSpeed=7.82 rpm, BldPitch1=0 deg)


Performing linearization 23 at simulation time 242.44 s. (RotSpeed=7.82 rpm, BldPitch1=0 deg)


Performing linearization 24 at simulation time 242.65 s. (RotSpeed=7.82 rpm, BldPitch1=0 deg)


Performing linearization 25 at simulation time 242.86 s. (RotSpeed=7.82 rpm, BldPitch1=0 deg)


Performing linearization 26 at simulation time 243.08 s. (RotSpeed=7.82 rpm, BldPitch1=0 deg)


Performing linearization 27 at simulation time 243.29 s. (RotSpeed=7.82 rpm, BldPitch1=0 deg)


Performing linearization 28 at simulation time 243.5 s. (RotSpeed=7.82 rpm, BldPitch1=0 deg)


Performing linearization 29 at simulation time 243.71 s. (RotSpeed=7.82 rpm, BldPitch1=0 deg)


Performing linearization 30 at simulation time 243.93 s. (RotSpeed=7.82 rpm, BldPitch1=0 deg)


Performing linearization 31 at simulation time 244.14 s. (RotSpeed=7.82 rpm, BldPitch1=0 deg)


Performing linearization 32 at simulation time 244.35 s. (RotSpeed=7.82 rpm, BldPitch1=0 deg)


Performing linearization 33 at simulation time 244.57 s. (RotSpeed=7.82 rpm, BldPitch1=0 deg)


Performing linearization 34 at simulation time 244.78 s. (RotSpeed=7.82 rpm, BldPitch1=0 deg)


Performing linearization 35 at simulation time 244.99 s. (RotSpeed=7.82 rpm, BldPitch1=0 deg)


Performing linearization 36 at simulation time 245.21 s. (RotSpeed=7.82 rpm, BldPitch1=0 deg)




Total Real Time:       1.8573 minutes
Total CPU Time:        1.8055 minutes
Simulation CPU Time:   1.8047 minutes
Simulated Time:        4.0868 minutes
Time Ratio (Sim/CPU):  2.2645

OpenFAST terminated normally.

