

**************************************************************************************************
OpenFAST

Copyright (C) 2023 National Renewable Energy Laboratory
Copyright (C) 2023 Envision Energy USA LTD

This program is licensed under Apache License Version 2.0 and comes with ABSOLUTELY NO WARRANTY.
See the "LICENSE" file distributed with this software for details.
**************************************************************************************************

OpenFAST-v3.5.1
Compile Info:
- Compiler: Intel(R) Fortran Compiler 2021
- Architecture: 64 bit
- Precision: single
- OpenMP: No
- Date: Oct 20 2023
- Time: 13:40:29
Execution Info:
- Date: 04/09/2026
- Time: 13:26:58-0400


OpenFAST input file heading:

FAST Certification Test #18: NREL 5.0 MW Baseline Wind Turbine (Onshore)


Running ElastoDyn.

Nodal outputs section of ElastoDyn input file not found or improperly formatted.

Running AeroDyn.

AD15 Nodal Outputs: Nodal output section of AeroDyn input file not found or improperly formatted.

Skipping nodal outputs.

Running InflowWind.

Time: 0 of 300 seconds.

Time: 3 of 300 seconds.  Estimated final completion at 13:27:40.

Time: 6 of 300 seconds.  Estimated final completion at 13:27:41.

Time: 9 of 300 seconds.  Estimated final completion at 13:27:42.

Time: 12 of 300 seconds.  Estimated final completion at 13:27:40.

Time: 15 of 300 seconds.  Estimated final completion at 13:27:38.

Time: 18 of 300 seconds.  Estimated final completion at 13:27:37.

Time: 21 of 300 seconds.  Estimated final completion at 13:27:38.

Time: 24 of 300 seconds.  Estimated final completion at 13:27:40.

Time: 27 of 300 seconds.  Estimated final completion at 13:27:37.

Time: 30 of 300 seconds.  Estimated final completion at 13:27:35.

Time: 33 of 300 seconds.  Estimated final completion at 13:27:42.

Time: 36 of 300 seconds.  Estimated final completion at 13:27:38.

Time: 39 of 300 seconds.  Estimated final completion at 13:27:38.

Time: 42 of 300 seconds.  Estimated final completion at 13:27:38.

Time: 45 of 300 seconds.  Estimated final completion at 13:27:40.

Time: 48 of 300 seconds.  Estimated final completion at 13:27:39.

Time: 51 of 300 seconds.  Estimated final completion at 13:27:37.

Time: 54 of 300 seconds.  Estimated final completion at 13:27:40.

Time: 57 of 300 seconds.  Estimated final completion at 13:27:37.

Time: 60 of 300 seconds.  Estimated final completion at 13:27:37.

Time: 63 of 300 seconds.  Estimated final completion at 13:27:38.

Time: 66 of 300 seconds.  Estimated final completion at 13:27:39.

Time: 69 of 300 seconds.  Estimated final completion at 13:27:38.

Time: 72 of 300 seconds.  Estimated final completion at 13:27:39.

Time: 75 of 300 seconds.  Estimated final completion at 13:27:39.

Time: 78 of 300 seconds.  Estimated final completion at 13:27:40.

Time: 81 of 300 seconds.  Estimated final completion at 13:27:38.

Time: 84 of 300 seconds.  Estimated final completion at 13:27:39.

Time: 87 of 300 seconds.  Estimated final completion at 13:27:38.

Time: 90 of 300 seconds.  Estimated final completion at 13:27:38.

Time: 93 of 300 seconds.  Estimated final completion at 13:27:38.

Time: 96 of 300 seconds.  Estimated final completion at 13:27:40.

Time: 99 of 300 seconds.  Estimated final completion at 13:27:39.

Time: 102 of 300 seconds.  Estimated final completion at 13:27:51.

Time: 105 of 300 seconds.  Estimated final completion at 13:27:43.

Time: 108 of 300 seconds.  Estimated final completion at 13:27:46.

Time: 111 of 300 seconds.  Estimated final completion at 13:27:41.

Time: 114 of 300 seconds.  Estimated final completion at 13:27:39.

Time: 117 of 300 seconds.  Estimated final completion at 13:27:40.

Time: 120 of 300 seconds.  Estimated final completion at 13:27:39.

Time: 123 of 300 seconds.  Estimated final completion at 13:27:39.

Time: 126 of 300 seconds.  Estimated final completion at 13:27:39.

Time: 129 of 300 seconds.  Estimated final completion at 13:27:39.

Time: 132 of 300 seconds.  Estimated final completion at 13:27:39.

Time: 135 of 300 seconds.  Estimated final completion at 13:27:39.

Time: 138 of 300 seconds.  Estimated final completion at 13:27:39.

Time: 141 of 300 seconds.  Estimated final completion at 13:27:39.

Time: 144 of 300 seconds.  Estimated final completion at 13:27:38.

Time: 147 of 300 seconds.  Estimated final completion at 13:27:38.

Time: 150 of 300 seconds.  Estimated final completion at 13:27:39.

Time: 153 of 300 seconds.  Estimated final completion at 13:27:40.

Time: 156 of 300 seconds.  Estimated final completion at 13:27:40.

Time: 159 of 300 seconds.  Estimated final completion at 13:27:40.

Time: 162 of 300 seconds.  Estimated final completion at 13:27:39.

Time: 165 of 300 seconds.  Estimated final completion at 13:27:41.

Time: 168 of 300 seconds.  Estimated final completion at 13:27:40.

Time: 171 of 300 seconds.  Estimated final completion at 13:27:40.

Time: 174 of 300 seconds.  Estimated final completion at 13:27:41.

Time: 177 of 300 seconds.  Estimated final completion at 13:27:41.

Time: 180 of 300 seconds.  Estimated final completion at 13:27:40.

Time: 183 of 300 seconds.  Estimated final completion at 13:27:41.

Time: 186 of 300 seconds.  Estimated final completion at 13:27:39.

Time: 189 of 300 seconds.  Estimated final completion at 13:27:39.

Time: 192 of 300 seconds.  Estimated final completion at 13:27:40.

Time: 195 of 300 seconds.  Estimated final completion at 13:27:40.

Time: 198 of 300 seconds.  Estimated final completion at 13:27:40.

Time: 201 of 300 seconds.  Estimated final completion at 13:27:40.

Time: 204 of 300 seconds.  Estimated final completion at 13:27:40.

Time: 207 of 300 seconds.  Estimated final completion at 13:27:39.

Time: 210 of 300 seconds.  Estimated final completion at 13:27:40.

Time: 213 of 300 seconds.  Estimated final completion at 13:27:40.

Time: 216 of 300 seconds.  Estimated final completion at 13:27:39.

Time: 219 of 300 seconds.  Estimated final completion at 13:27:39.

Time: 222 of 300 seconds.  Estimated final completion at 13:27:39.

Time: 225 of 300 seconds.  Estimated final completion at 13:27:40.

Time: 228 of 300 seconds.  Estimated final completion at 13:27:40.

Time: 231 of 300 seconds.  Estimated final completion at 13:27:39.

Time: 234 of 300 seconds.  Estimated final completion at 13:27:40.

Time: 237 of 300 seconds.  Estimated final completion at 13:27:40.

Time: 240 of 300 seconds.  Estimated final completion at 13:27:40.

Time: 243 of 300 seconds.  Estimated final completion at 13:27:40.

Time: 246 of 300 seconds.  Estimated final completion at 13:27:40.

Time: 249 of 300 seconds.  Estimated final completion at 13:27:40.

Time: 252 of 300 seconds.  Estimated final completion at 13:27:40.

Time: 255 of 300 seconds.  Estimated final completion at 13:27:40.

Time: 258 of 300 seconds.  Estimated final completion at 13:27:40.

Time: 261 of 300 seconds.  Estimated final completion at 13:27:40.

Time: 264 of 300 seconds.  Estimated final completion at 13:27:40.

Time: 267 of 300 seconds.  Estimated final completion at 13:27:40.

Time: 270 of 300 seconds.  Estimated final completion at 13:27:40.

Time: 273 of 300 seconds.  Estimated final completion at 13:27:40.

Time: 276 of 300 seconds.  Estimated final completion at 13:27:40.

Time: 279 of 300 seconds.  Estimated final completion at 13:27:40.

Time: 282 of 300 seconds.  Estimated final completion at 13:27:40.

Time: 285 of 300 seconds.  Estimated final completion at 13:27:40.

Time: 288 of 300 seconds.  Estimated final completion at 13:27:40.

Time: 291 of 300 seconds.  Estimated final completion at 13:27:40.

Performing linearization 1 at simulation time 287.61 s. (RotSpeed=12.1 rpm, BldPitch1=10.86 deg)


Performing linearization 2 at simulation time 287.75 s. (RotSpeed=12.1 rpm, BldPitch1=10.86 deg)


Performing linearization 3 at simulation time 287.89 s. (RotSpeed=12.1 rpm, BldPitch1=10.86 deg)


Performing linearization 4 at simulation time 288.03 s. (RotSpeed=12.1 rpm, BldPitch1=10.86 deg)


Performing linearization 5 at simulation time 288.16 s. (RotSpeed=12.1 rpm, BldPitch1=10.86 deg)


Performing linearization 6 at simulation time 288.3 s. (RotSpeed=12.1 rpm, BldPitch1=10.86 deg)


Performing linearization 7 at simulation time 288.44 s. (RotSpeed=12.1 rpm, BldPitch1=10.86 deg)


Performing linearization 8 at simulation time 288.57 s. (RotSpeed=12.1 rpm, BldPitch1=10.86 deg)


Performing linearization 9 at simulation time 288.71 s. (RotSpeed=12.1 rpm, BldPitch1=10.86 deg)


Performing linearization 10 at simulation time 288.85 s. (RotSpeed=12.1 rpm, BldPitch1=10.86 deg)


Performing linearization 11 at simulation time 288.99 s. (RotSpeed=12.1 rpm, BldPitch1=10.86 deg)


Performing linearization 12 at simulation time 289.13 s. (RotSpeed=12.1 rpm, BldPitch1=10.86 deg)


Performing linearization 13 at simulation time 289.27 s. (RotSpeed=12.1 rpm, BldPitch1=10.86 deg)


Performing linearization 14 at simulation time 289.41 s. (RotSpeed=12.1 rpm, BldPitch1=10.86 deg)


Performing linearization 15 at simulation time 289.54 s. (RotSpeed=12.1 rpm, BldPitch1=10.86 deg)


Performing linearization 16 at simulation time 289.68 s. (RotSpeed=12.1 rpm, BldPitch1=10.86 deg)


Performing linearization 17 at simulation time 289.82 s. (RotSpeed=12.1 rpm, BldPitch1=10.86 deg)


Performing linearization 18 at simulation time 289.96 s. (RotSpeed=12.1 rpm, BldPitch1=10.86 deg)


Performing linearization 19 at simulation time 290.09 s. (RotSpeed=12.1 rpm, BldPitch1=10.86 deg)


Performing linearization 20 at simulation time 290.23 s. (RotSpeed=12.1 rpm, BldPitch1=10.86 deg)


Performing linearization 21 at simulation time 290.37 s. (RotSpeed=12.1 rpm, BldPitch1=10.86 deg)


Performing linearization 22 at simulation time 290.51 s. (RotSpeed=12.1 rpm, BldPitch1=10.86 deg)


Performing linearization 23 at simulation time 290.64 s. (RotSpeed=12.1 rpm, BldPitch1=10.86 deg)


Performing linearization 24 at simulation time 290.78 s. (RotSpeed=12.1 rpm, BldPitch1=10.86 deg)


Performing linearization 25 at simulation time 290.92 s. (RotSpeed=12.1 rpm, BldPitch1=10.86 deg)


Performing linearization 26 at simulation time 291.06 s. (RotSpeed=12.1 rpm, BldPitch1=10.86 deg)


Performing linearization 27 at simulation time 291.19 s. (RotSpeed=12.1 rpm, BldPitch1=10.86 deg)


Performing linearization 28 at simulation time 291.33 s. (RotSpeed=12.1 rpm, BldPitch1=10.86 deg)


Performing linearization 29 at simulation time 291.47 s. (RotSpeed=12.1 rpm, BldPitch1=10.86 deg)


Performing linearization 30 at simulation time 291.61 s. (RotSpeed=12.1 rpm, BldPitch1=10.86 deg)


Performing linearization 31 at simulation time 291.74 s. (RotSpeed=12.1 rpm, BldPitch1=10.86 deg)


Performing linearization 32 at simulation time 291.88 s. (RotSpeed=12.1 rpm, BldPitch1=10.86 deg)


Performing linearization 33 at simulation time 292.02 s. (RotSpeed=12.1 rpm, BldPitch1=10.86 deg)


Performing linearization 34 at simulation time 292.16 s. (RotSpeed=12.1 rpm, BldPitch1=10.86 deg)


Performing linearization 35 at simulation time 292.29 s. (RotSpeed=12.1 rpm, BldPitch1=10.86 deg)


Performing linearization 36 at simulation time 292.43 s. (RotSpeed=12.1 rpm, BldPitch1=10.86 deg)




Total Real Time:       1.9486 minutes
Total CPU Time:        1.9039 minutes
Simulation CPU Time:   1.9034 minutes
Simulated Time:        4.8739 minutes
Time Ratio (Sim/CPU):  2.5606

OpenFAST terminated normally.

